ckt7_Mon_rfi_16_der000.csv
fault_bus,fault_type,fault_R_ohm,Va_mag_pu,Va_ang_deg,Vb_mag_pu,Vb_ang_deg,Vc_mag_pu,Vc_ang_deg,Ia_mag_A,Ia_ang_deg,Ib_mag_A,Ib_ang_deg,Ic_mag_A,Ic_ang_deg
318412,SLG,0,0.124947,-118.0596,1.036124,-151.8463,1.034619,88.5886,0.0,-25.7058,0.0,-60.8148,0.0,178.7811
318412,SLG,10,1.026219,-31.5527,1.030775,-151.201,1.023082,88.6616,0.0,59.1106,0.0,-60.2401,0.0,179.0151
318412,SLG,20,1.026225,-31.5297,1.030777,-151.201,1.02308,88.6614,0.0,59.3162,0.0,-60.2426,0.0,179.0137
318412,SLG,30,1.026227,-31.5221,1.030778,-151.201,1.023079,88.6613,0.0,59.3169,0.0,-60.4386,0.0,179.0971
318412,SLG,40,1.026228,-31.5182,1.030778,-151.201,1.023079,88.6613,0.0,59.265,0.0,-60.2751,0.0,179.0958
318412,LL,0,0.117172,-114.0078,0.134183,122.6831,1.036143,88.1375,0.0,-22.3144,0.0,-145.3099,0.0,178.5354
318412,LL,10,1.026222,-31.5523,1.030761,-151.247,1.023078,88.6616,0.0,59.2605,0.0,-60.333,0.0,179.1792
318412,LL,20,1.026227,-31.5295,1.03077,-151.224,1.023078,88.6614,0.0,59.3077,0.0,-60.4106,0.0,179.0165
318412,LL,30,1.026228,-31.5219,1.030773,-151.2163,1.023078,88.6613,0.0,59.3116,0.0,-60.2902,0.0,179.0984
318412,LL,40,1.026229,-31.5181,1.030775,-151.2125,1.023078,88.6613,0.0,59.274,0.0,-60.353,0.0,179.1804
318412,3LG,0,0.128356,-113.6958,0.12894,126.6135,0.127961,6.4891,0.0,-22.7298,0.0,-142.4219,0.0,96.7434
318412,3LG,10,1.026217,-31.5524,1.030765,-151.2466,1.023063,88.6155,0.0,59.2839,0.0,-60.3905,0.0,179.0958
318412,3LG,20,1.026224,-31.5295,1.030772,-151.2238,1.023071,88.6383,0.0,59.3149,0.0,-60.2075,0.0,179.1804
318412,3LG,30,1.026227,-31.5219,1.030774,-151.2162,1.023073,88.6459,0.0,59.3877,0.0,-60.2802,0.0,179.0984
318412,3LG,40,1.026228,-31.5181,1.030776,-151.2124,1.023074,88.6497,0.0,59.1901,0.0,-60.4533,0.0,179.1815
243937,SLG,0,0.011567,102.8699,1.324813,172.8491,1.728462,102.5359,0.0,141.6325,0.0,-95.9577,0.0,-167.1957
243937,SLG,10,1.019568,-31.6626,1.033104,-151.4598,1.02605,88.9056,0.0,59.1216,0.0,-60.6156,0.0,179.3452
243937,SLG,20,1.022891,-31.5849,1.031945,-151.3309,1.024563,88.784,0.0,59.0802,0.0,-60.3452,0.0,179.2613
243937,SLG,30,1.024002,-31.5589,1.031558,-151.2877,1.024068,88.7432,0.0,59.3299,0.0,-60.4837,0.0,179.2602
243937,SLG,40,1.024559,-31.5459,1.031363,-151.266,1.02382,88.7227,0.0,59.2636,0.0,-60.2276,0.0,179.1792
243937,LL,0,0.022581,-38.913,0.036674,96.9052,1.472649,83.3732,0.0,41.5664,0.0,-169.7559,0.0,173.7483
243937,LL,10,1.02252,-31.4196,1.026489,-151.6132,1.028329,88.6479,0.0,59.4801,0.0,-60.658,0.0,179.1862
243937,LL,20,1.024364,-31.4627,1.028626,-151.4077,1.025718,88.6546,0.0,59.3056,0.0,-60.5719,0.0,179.0179
243937,LL,30,1.024984,-31.4773,1.029342,-151.3389,1.024841,88.6568,0.0,59.3311,0.0,-60.353,0.0,179.0179
243937,LL,40,1.025295,-31.4846,1.0297,-151.3045,1.024402,88.6579,0.0,59.374,0.0,-60.408,0.0,178.851
243937,3LG,0,0.031943,-96.6241,0.032073,143.6861,0.031835,23.5446,0.0,-5.8544,0.0,-125.4403,0.0,114.0211
243937,3LG,10,1.024846,-31.6766,1.029393,-151.3701,1.021685,88.4913,0.0,59.0861,0.0,-60.5416,0.0,178.9345
243937,3LG,20,1.025539,-31.5917,1.030087,-151.2856,1.022382,88.5762,0.0,59.3376,0.0,-60.4634,0.0,178.7689
243937,3LG,30,1.02577,-31.5634,1.030318,-151.2574,1.022614,88.6045,0.0,59.3124,0.0,-60.2275,0.0,179.0137
243937,3LG,40,1.025886,-31.5492,1.030433,-151.2433,1.02273,88.6186,0.0,59.3714,0.0,-60.2426,0.0,179.0971
157347,SLG,0,0.400154,-24.0386,1.08506,-170.017,1.339666,95.553,0.0,66.3736,0.0,-78.96,0.0,-174.1392
157347,SLG,10,1.017679,-31.9955,1.035793,-151.4295,1.024251,89.0208,0.0,58.8247,0.0,-60.6669,0.0,179.5089
157347,SLG,20,1.021954,-31.7532,1.033314,-151.3151,1.023639,88.8424,0.0,59.11,0.0,-60.3076,0.0,179.0984
157347,SLG,30,1.023379,-31.6715,1.032475,-151.2771,1.023446,88.7823,0.0,59.1169,0.0,-60.3352,0.0,179.1792
157347,SLG,40,1.024092,-31.6305,1.032054,-151.258,1.023352,88.7521,0.0,59.2196,0.0,-60.2051,0.0,179.2602
157347,LL,0,0.502206,-33.1661,0.337705,-163.1713,1.246512,83.3697,0.0,57.3023,0.0,-71.8951,0.0,173.9733
157347,LL,10,1.018852,-31.6353,1.027245,-151.9147,1.029227,88.7909,0.0,59.2369,0.0,-60.7253,0.0,179.0207
157347,LL,20,1.022501,-31.5724,1.029045,-151.5601,1.02617,88.7285,0.0,59.1687,0.0,-60.7727,0.0,179.1792
157347,LL,30,1.023735,-31.5508,1.02963,-151.4409,1.025143,88.7066,0.0,59.2861,0.0,-60.3528,0.0,179.0165
157347,LL,40,1.024356,-31.5399,1.02992,-151.3811,1.024628,88.6954,0.0,59.374,0.0,-60.4958,0.0,178.9345
157347,3LG,0,0.441984,-43.5369,0.443797,-163.2347,0.440544,76.6304,0.0,47.1866,0.0,-72.3286,0.0,166.9804
157347,3LG,10,1.023836,-31.864,1.028387,-151.5575,1.02068,88.3039,0.0,58.9286,0.0,-60.7045,0.0,178.7654
157347,3LG,20,1.025042,-31.6859,1.029591,-151.3798,1.021887,88.482,0.0,59.2252,0.0,-60.4034,0.0,178.7654
157347,3LG,30,1.02544,-31.6263,1.029989,-151.3203,1.022286,88.5416,0.0,59.2181,0.0,-60.4234,0.0,178.9315
157347,3LG,40,1.025639,-31.5965,1.030187,-151.2905,1.022484,88.5714,0.0,59.3409,0.0,-60.4505,0.0,178.933
298162,SLG,0,0.015742,131.5097,1.222232,-172.8515,1.39664,101.2504,0.0,-141.2484,0.0,-81.7047,0.0,-168.5245
298162,SLG,10,1.009924,-32.9786,1.04336,-151.427,1.020528,89.3896,0.0,57.7539,0.0,-60.6074,0.0,179.8351
298162,SLG,20,1.018101,-32.2481,1.037143,-151.311,1.021688,89.0268,0.0,58.4963,0.0,-60.5793,0.0,179.5075
298162,SLG,30,1.020817,-32.0021,1.035038,-151.2737,1.022125,88.9052,0.0,58.7832,0.0,-60.3575,0.0,179.3443
298162,SLG,40,1.022172,-31.8787,1.03398,-151.2552,1.022353,88.8443,0.0,58.9318,0.0,-60.3799,0.0,179.2591
298162,LL,0,0.0093,45.4609,0.016539,77.9835,1.344096,85.4,0.0,106.8584,0.0,167.3666,0.0,175.7312
298162,LL,10,1.00727,-32.2445,1.02694,-152.8871,1.033114,89.1539,0.0,58.607,0.0,-61.9705,0.0,179.4327
298162,LL,20,1.016647,-31.8819,1.028992,-152.0489,1.028077,88.9162,0.0,59.0301,0.0,-61.0552,0.0,179.2676
298162,LL,30,1.019819,-31.7583,1.029618,-151.7673,1.026406,88.8331,0.0,59.0757,0.0,-60.7762,0.0,179.2644
298162,LL,40,1.021414,-31.6959,1.02992,-151.6261,1.025572,88.7909,0.0,59.0776,0.0,-60.765,0.0,179.2644
298162,3LG,0,0.005799,-102.1587,0.005817,138.0874,0.005781,17.9649,0.0,-11.292,0.0,-131.2228,0.0,108.3453
298162,3LG,10,1.019735,-32.4724,1.024319,-152.1672,1.01662,87.6957,0.0,58.3549,0.0,-61.47,0.0,178.0251
298162,3LG,20,1.023011,-31.9909,1.027578,-151.6855,1.019878,88.1771,0.0,58.8324,0.0,-60.7961,0.0,178.6831
298162,3LG,30,1.024091,-31.8298,1.028651,-151.5243,1.020951,88.3381,0.0,59.0695,0.0,-60.6144,0.0,178.685
298162,3LG,40,1.024628,-31.7491,1.029186,-151.4436,1.021485,88.4188,0.0,58.996,0.0,-60.6643,0.0,178.9315
165448,SLG,0,0.015618,131.7216,1.22695,-172.4803,1.389115,101.4679,0.0,-139.8991,0.0,-81.4663,0.0,-168.3804
165448,SLG,10,1.009077,-33.1061,1.044351,-151.4186,1.019913,89.434,0.0,57.7382,0.0,-60.5147,0.0,179.9177
165448,SLG,20,1.017686,-32.3125,1.037647,-151.3061,1.021362,89.0488,0.0,58.5717,0.0,-60.4722,0.0,179.5061
165448,SLG,30,1.020542,-32.0453,1.035376,-151.2702,1.021903,88.9198,0.0,58.6278,0.0,-60.2975,0.0,179.3424
165448,SLG,40,1.021967,-31.9112,1.034234,-151.2526,1.022186,88.8552,0.0,58.9835,0.0,-60.3802,0.0,179.1792
165448,LL,0,0.009329,47.0699,0.016085,77.4177,1.342459,85.5844,0.0,104.0362,0.0,163.9092,0.0,175.9726
165448,LL,10,1.005795,-32.3264,1.027054,-153.0049,1.033506,89.2048,0.0,58.4973,0.0,-62.1206,0.0,179.5937
165448,LL,20,1.0159,-31.9241,1.029074,-152.1082,1.028262,88.9429,0.0,58.8945,0.0,-61.2982,0.0,179.1839
165448,LL,30,1.019319,-31.7867,1.029678,-151.8069,1.026526,88.8512,0.0,59.0089,0.0,-60.7716,0.0,179.2644
165448,LL,40,1.021038,-31.7173,1.029967,-151.6559,1.025661,88.8045,0.0,58.9606,0.0,-60.6665,0.0,179.1839
165448,3LG,0,0.005383,-102.2121,0.0054,138.0276,0.005367,17.9074,0.0,-11.3666,0.0,-131.1916,0.0,108.3479
165448,3LG,10,1.019233,-32.5466,1.023825,-152.2418,1.016128,87.6215,0.0,58.2621,0.0,-61.4188,0.0,178.0194
165448,3LG,20,1.022764,-32.0282,1.027335,-151.723,1.019636,88.1398,0.0,58.7116,0.0,-60.713,0.0,178.6812
165448,3LG,30,1.023927,-31.8547,1.028491,-151.5494,1.020791,88.3132,0.0,58.9425,0.0,-60.6221,0.0,178.7689
165448,3LG,40,1.024506,-31.7679,1.029066,-151.4624,1.021365,88.4001,0.0,58.9741,0.0,-60.6971,0.0,178.6831
165449,SLG,0,0.013942,131.6924,1.261675,-171.1041,1.361955,103.0012,0.0,-151.3269,0.0,-79.9122,0.0,-166.8801
165449,SLG,10,1.000938,-34.38,1.054787,-151.3474,1.013743,89.9117,0.0,56.4317,0.0,-60.4758,0.0,-179.752
165449,SLG,20,1.013759,-32.96,1.04297,-151.2592,1.018007,89.2846,0.0,57.8742,0.0,-60.3689,0.0,179.5039
165449,SLG,30,1.017958,-32.4792,1.038946,-151.2363,1.019606,89.0762,0.0,58.4113,0.0,-60.2874,0.0,179.4254
165449,SLG,40,1.020042,-32.2374,1.036919,-151.2261,1.02044,88.9722,0.0,58.5629,0.0,-60.4599,0.0,179.4246
165449,LL,0,0.008718,53.9334,0.012848,73.8593,1.341841,86.5664,0.0,118.3008,0.0,158.1986,0.0,176.9806
165449,LL,10,0.991295,-33.1058,1.02892,-154.193,1.038033,89.7266,0.0,57.8003,0.0,-63.186,0.0,-179.9191
165449,LL,20,1.008528,-32.3321,1.030365,-152.7063,1.030334,89.221,0.0,58.5403,0.0,-61.8037,0.0,179.6745
165449,LL,30,1.01438,-32.0629,1.030622,-152.2064,1.027859,89.0405,0.0,58.8105,0.0,-61.3419,0.0,179.1839
165449,LL,40,1.017325,-31.9261,1.030706,-151.9557,1.026642,88.9479,0.0,58.7987,0.0,-61.1128,0.0,179.5913
165449,3LG,0,0.003188,-103.5538,0.003196,136.6127,0.00318,16.5203,0.0,-12.7401,0.0,-132.5136,0.0,106.9661
165449,3LG,10,1.014922,-33.266,1.019629,-152.9684,1.011972,86.9031,0.0,57.437,0.0,-62.0417,0.0,177.2658
165449,3LG,20,1.020672,-32.3908,1.025305,-152.0892,1.017624,87.7779,0.0,58.4756,0.0,-61.2709,0.0,178.0165
165449,3LG,30,1.022546,-32.0971,1.027153,-151.7941,1.019464,88.0714,0.0,58.7089,0.0,-60.8353,0.0,178.4363
165449,3LG,40,1.023476,-31.9498,1.028068,-151.6462,1.020376,88.2185,0.0,58.9716,0.0,-60.8283,0.0,178.7636
287274,SLG,0,0.070224,-58.0021,1.271048,-168.0922,1.296084,103.555,0.0,35.4419,0.0,-76.8602,0.0,-166.216
287274,SLG,10,0.990932,-35.0982,1.060579,-151.334,1.010669,90.1933,0.0,55.8043,0.0,-60.4207,0.0,-179.4188
287274,SLG,20,1.008812,-33.3388,1.046063,-151.2409,1.01618,89.4264,0.0,57.5232,0.0,-60.2329,0.0,179.9173
287274,SLG,30,1.014676,-32.736,1.041041,-151.2215,1.018325,89.1706,0.0,57.9016,0.0,-60.3271,0.0,179.589
287274,SLG,40,1.017587,-32.4316,1.038502,-151.2141,1.019455,89.0429,0.0,58.3763,0.0,-60.4323,0.0,179.589
287274,LL,0,0.107215,-51.7541,0.089467,158.6146,1.315771,87.7004,0.0,37.5513,0.0,-107.2415,0.0,177.886
287274,LL,10,0.983228,-33.7384,1.030202,-155.1577,1.04772,89.7945,0.0,57.0113,0.0,-64.2219,0.0,-179.9198
287274,LL,20,1.001724,-32.5651,1.028377,-153.0658,1.031685,89.3764,0.0,58.1995,0.0,-62.3626,0.0,179.8372
287274,LL,30,1.00979,-32.2236,1.029379,-152.4484,1.028721,89.1482,0.0,58.6382,0.0,-61.4736,0.0,179.5096
287274,LL,40,1.013863,-32.0487,1.029806,-152.1381,1.027273,89.0303,0.0,58.7287,0.0,-61.3176,0.0,179.3452
287274,3LG,0,0.109825,-68.0712,0.11001,172.0571,0.10957,51.9796,0.0,22.6061,0.0,-96.9372,0.0,142.4809
287274,3LG,10,1.007296,-33.686,1.012099,-153.3942,1.004478,86.4842,0.0,57.0461,0.0,-62.4678,0.0,176.8294
287274,3LG,20,1.016871,-32.6086,1.02156,-152.3099,1.013893,87.561,0.0,58.0688,0.0,-61.5313,0.0,177.9339
287274,3LG,30,1.020017,-32.244,1.024661,-151.943,1.016981,87.9252,0.0,58.5551,0.0,-61.1743,0.0,178.4295
287274,3LG,40,1.02158,-32.0607,1.026202,-151.7585,1.018516,88.1082,0.0,58.8544,0.0,-60.6906,0.0,178.434
283954,SLG,0,0.076245,-58.9749,1.275981,-167.993,1.294007,103.7765,0.0,34.0926,0.0,-76.7998,0.0,-166.0111
283954,SLG,10,0.985873,-35.7915,1.066235,-151.3242,1.007768,90.4726,0.0,55.0484,0.0,-60.3206,0.0,-179.1697
283954,SLG,20,1.006422,-33.701,1.049072,-151.2223,1.014421,89.5645,0.0,57.1517,0.0,-60.4451,0.0,180.0
283954,SLG,30,1.013118,-32.9805,1.043072,-151.2063,1.017088,89.2619,0.0,57.8629,0.0,-60.317,0.0,179.6702
283954,SLG,40,1.016433,-32.6161,1.040034,-151.2016,1.018502,89.111,0.0,58.1286,0.0,-60.28,0.0,179.5878
283954,LL,0,0.114105,-53.1313,0.09578,158.7112,1.316194,87.8249,0.0,35.9097,0.0,-107.5256,0.0,178.274
283954,LL,10,0.974942,-34.133,1.030426,-155.8393,1.050925,90.0628,0.0,56.7153,0.0,-64.8365,0.0,-179.6808
283954,LL,20,0.997516,-32.7846,1.028883,-153.4083,1.033035,89.5273,0.0,58.0456,0.0,-62.5604,0.0,179.9187
283954,LL,30,1.006954,-32.375,1.029807,-152.6779,1.029571,89.253,0.0,58.4429,0.0,-61.7955,0.0,179.5925
283954,LL,40,1.011724,-32.1641,1.030162,-152.3105,1.027889,89.1105,0.0,58.6648,0.0,-61.4049,0.0,179.5919
283954,3LG,0,0.116755,-68.7124,0.116914,171.3726,0.116529,51.3205,0.0,22.2339,0.0,-97.7381,0.0,141.7326
283954,3LG,10,1.004657,-34.0847,1.009581,-153.8012,1.002002,86.0871,0.0,56.6101,0.0,-62.8357,0.0,176.6483
283954,3LG,20,1.015603,-32.8128,1.020362,-152.5181,1.01271,87.3581,0.0,57.9924,0.0,-61.5934,0.0,177.7624
283954,3LG,30,1.019184,-32.3812,1.023877,-152.0828,1.016206,87.7889,0.0,58.418,0.0,-61.1674,0.0,178.1764
283954,3LG,40,1.02096,-32.164,1.025619,-151.8638,1.01794,88.0057,0.0,58.639,0.0,-61.0779,0.0,178.4318
283956,SLG,0,0.248422,-65.0782,1.270131,-164.6789,1.220381,103.5163,0.0,26.3617,0.0,-73.5499,0.0,-166.3405
283956,SLG,10,0.986242,-35.7056,1.065609,-151.329,1.008144,90.4433,0.0,55.1005,0.0,-60.6076,0.0,-179.1673
283956,SLG,20,1.006503,-33.6784,1.048903,-151.2244,1.014535,89.5573,0.0,57.1528,0.0,-60.2699,0.0,-179.8344
283956,SLG,30,1.013152,-32.9702,1.042995,-151.2074,1.017141,89.2587,0.0,57.8584,0.0,-60.3121,0.0,179.6702
283956,SLG,40,1.016452,-32.6103,1.03999,-151.2022,1.018533,89.1092,0.0,58.2081,0.0,-60.357,0.0,179.5878
283956,LL,0,0.299979,-58.0369,0.289615,165.7005,1.279405,89.2039,0.0,32.4501,0.0,-102.5993,0.0,179.6718
283956,LL,10,0.976116,-34.0868,1.029862,-155.7572,1.050543,90.0223,0.0,56.6405,0.0,-65.0612,0.0,-179.5199
283956,LL,20,0.997818,-32.7711,1.028708,-153.3876,1.032958,89.5158,0.0,58.0777,0.0,-62.4652,0.0,179.8372
283956,LL,30,1.00709,-32.3686,1.029723,-152.6686,1.029539,89.2477,0.0,58.4877,0.0,-61.6233,0.0,179.674
283956,LL,40,1.011802,-32.1605,1.030113,-152.3053,1.027872,89.1073,0.0,58.6387,0.0,-61.1464,0.0,179.5919
283956,3LG,0,0.316242,-66.6581,0.316931,173.4346,0.315673,53.3947,0.0,24.1923,0.0,-95.5865,0.0,143.7542
283956,3LG,10,1.004777,-34.048,1.00969,-153.7638,1.002106,86.1237,0.0,56.57,0.0,-62.8809,0.0,176.5597
283956,3LG,20,1.015629,-32.8033,1.020384,-152.5085,1.012732,87.3675,0.0,57.8941,0.0,-61.732,0.0,177.8452
283956,3LG,30,1.019194,-32.3769,1.023886,-152.0785,1.016215,87.7931,0.0,58.4355,0.0,-61.1484,0.0,178.1817
283956,3LG,40,1.020966,-32.1616,1.025624,-151.8613,1.017944,88.0081,0.0,58.6302,0.0,-61.0337,0.0,178.2693
189963,SLG,0,0.019013,-24.558,1.302655,-165.5511,1.240246,105.0452,0.0,63.155,0.0,-74.4666,0.0,-164.8849
189963,SLG,10,0.951972,-37.6132,1.08571,-151.6332,1.008452,90.956,0.0,53.1641,0.0,-60.841,0.0,-178.7528
189963,SLG,20,0.98702,-34.5531,1.055924,-151.207,1.010742,89.893,0.0,56.2776,0.0,-60.5077,0.0,-179.6679
189963,SLG,30,1.000091,-33.5642,1.047775,-151.1882,1.01442,89.4818,0.0,57.3512,0.0,-60.1786,0.0,179.8344
189963,SLG,40,1.006631,-33.0598,1.043611,-151.1848,1.016419,89.2762,0.0,57.8113,0.0,-60.3346,0.0,179.5866
189963,LL,0,0.023707,-9.0781,0.025082,-152.232,1.308952,89.217,0.0,70.3743,0.0,-53.3581,0.0,179.6137
189963,LL,10,0.931016,-34.9906,1.001902,-157.4117,1.058715,90.5878,0.0,55.8499,0.0,-66.4923,0.0,-179.0491
189963,LL,20,0.979319,-33.5043,1.021329,-154.5038,1.043146,89.6449,0.0,57.3412,0.0,-63.599,0.0,-179.8393
189963,LL,30,0.99122,-32.7336,1.021171,-153.2414,1.031744,89.4847,0.0,58.1688,0.0,-62.4795,0.0,179.837
189963,LL,40,0.999799,-32.44,1.023762,-152.7371,1.029475,89.2897,0.0,58.3501,0.0,-61.8331,0.0,179.6735
189963,3LG,0,0.026728,-20.0903,0.026732,-140.0934,0.026738,99.9089,0.0,70.7266,0.0,-49.0882,0.0,-169.6513
189963,3LG,10,0.976966,-35.2621,0.982234,-155.0,0.974785,84.9232,0.0,55.6206,0.0,-64.1516,0.0,175.3576
189963,3LG,20,0.998795,-33.3172,1.003718,-153.0323,0.996146,86.86,0.0,57.5745,0.0,-62.107,0.0,177.1334
189963,3LG,30,1.0079,-32.7247,1.012712,-152.4328,1.005088,87.45,0.0,58.1738,0.0,-61.4863,0.0,177.9159
189963,3LG,40,1.012468,-32.4244,1.01722,-152.1289,1.009573,87.7489,0.0,58.4155,0.0,-61.2824,0.0,178.1711
181977,SLG,0,0.111543,-47.973,1.286918,-164.3777,1.213843,104.3086,0.0,43.7002,0.0,-73.379,0.0,-165.61
181977,SLG,10,0.948342,-37.9876,1.089095,-151.6596,1.007321,91.1418,0.0,52.9078,0.0,-60.7505,0.0,-178.5013
181977,SLG,20,0.985292,-34.78,1.057878,-151.2046,1.009755,89.9895,0.0,56.0568,0.0,-60.2918,0.0,-179.5842
181977,SLG,30,0.998956,-33.7252,1.049146,-151.1826,1.013658,89.5469,0.0,57.146,0.0,-60.3638,0.0,179.9171
181977,SLG,40,1.005789,-33.1842,1.044662,-151.179,1.015807,89.3251,0.0,57.6569,0.0,-60.3144,0.0,179.6688
181977,LL,0,0.139318,-43.4547,0.124567,-179.6455,1.288389,89.3614,0.0,45.8273,0.0,-86.3247,0.0,179.9347
181977,LL,10,0.926726,-35.1523,1.000846,-157.8118,1.061086,90.7061,0.0,55.6979,0.0,-66.8411,0.0,-178.8131
181977,LL,20,0.976601,-33.6262,1.021286,-154.7342,1.044274,89.7353,0.0,57.1291,0.0,-63.8092,0.0,-179.7589
181977,LL,30,0.989348,-32.8261,1.021299,-153.3982,1.03241,89.5514,0.0,57.8937,0.0,-62.4779,0.0,-179.8379
181977,LL,40,0.998353,-32.5135,1.023911,-152.8568,1.029953,89.3426,0.0,58.2952,0.0,-62.003,0.0,179.7562
181977,3LG,0,0.141416,-52.8428,0.141506,-172.8322,0.141431,67.1762,0.0,38.0388,0.0,-81.9115,0.0,157.517
181977,3LG,10,0.975321,-35.4879,0.98064,-155.2337,0.973268,84.6965,0.0,55.3475,0.0,-64.4409,0.0,174.9854
181977,3LG,20,0.997943,-33.4476,1.00291,-153.1666,0.995368,86.7301,0.0,57.3391,0.0,-62.3343,0.0,177.2135
181977,3LG,30,1.007321,-32.816,1.012168,-152.5266,1.004562,87.3593,0.0,57.9468,0.0,-61.6584,0.0,177.9129
181977,3LG,40,1.012031,-32.4945,1.016811,-152.2009,1.009176,87.6793,0.0,58.2502,0.0,-61.2915,0.0,178.1685
181924,SLG,0,0.005777,-18.1213,1.310776,-166.3626,1.258939,105.4073,0.0,66.7443,0.0,-75.3697,0.0,-164.4132
181924,SLG,10,0.939443,-39.1728,1.098407,-151.6741,1.003316,91.6262,0.0,51.7117,0.0,-60.627,0.0,-178.0797
181924,SLG,20,0.981155,-35.3816,1.062684,-151.1868,1.007144,90.2218,0.0,55.5153,0.0,-60.3183,0.0,-179.3338
181924,SLG,30,0.996269,-34.1289,1.052418,-151.1633,1.011765,89.6992,0.0,56.6975,0.0,-60.2527,0.0,-179.9171
181924,SLG,40,1.003801,-33.4876,1.047127,-151.1621,1.014336,89.438,0.0,57.2053,0.0,-60.3291,0.0,179.8344
181924,LL,0,0.006437,-15.6084,0.006126,-144.5308,1.318606,89.0274,0.0,40.1009,0.0,-30.9638,0.0,179.362
181924,LL,10,0.913433,-35.8075,1.000003,-158.9422,1.0666,91.0894,0.0,54.9067,0.0,-67.8119,0.0,-178.5817
181924,LL,20,0.969609,-33.985,1.0216,-155.3033,1.046701,89.9674,0.0,56.8696,0.0,-64.3023,0.0,-179.5993
181924,LL,30,0.984687,-33.0735,1.021703,-153.7753,1.033873,89.7146,0.0,57.7395,0.0,-62.922,0.0,-179.9187
181924,LL,40,0.994841,-32.7019,1.024284,-153.1393,1.030999,89.4681,0.0,58.1227,0.0,-62.3213,0.0,179.9184
181924,3LG,0,0.006544,-20.7534,0.006548,-140.7311,0.006546,99.2707,0.0,70.0244,0.0,-49.8951,0.0,-170.3317
181924,3LG,10,0.970354,-36.1763,0.975744,-155.9315,0.968491,84.0086,0.0,54.7876,0.0,-65.1382,0.0,174.4614
181924,3LG,20,0.995634,-33.7912,1.000656,-153.5146,0.99316,86.3876,0.0,57.0997,0.0,-62.4777,0.0,176.7826
181924,3LG,30,1.005817,-33.0449,1.010705,-152.7583,1.003127,87.1314,0.0,57.7837,0.0,-61.8221,0.0,177.4959
181924,3LG,40,1.010917,-32.6661,1.015729,-152.3746,1.008113,87.5085,0.0,58.2612,0.0,-61.3576,0.0,177.7494
181993,SLG,0,0.000463,-104.687,1.313878,-166.6494,1.265606,105.5433,0.0,57.4751,0.0,-75.5362,0.0,-164.2192
181993,SLG,10,0.934071,-39.8761,1.104122,-151.6974,1.001153,91.9311,0.0,51.0818,0.0,-60.9684,0.0,-177.6524
181993,SLG,20,0.978608,-35.7593,1.065785,-151.1797,1.005539,90.374,0.0,55.1008,0.0,-60.3621,0.0,-179.2494
181993,SLG,30,0.994618,-34.3868,1.054548,-151.1529,1.010564,89.7995,0.0,56.4731,0.0,-60.238,0.0,-179.9171
181993,SLG,40,1.002583,-33.6832,1.048742,-151.1522,1.013387,89.5126,0.0,57.2585,0.0,-60.2576,0.0,179.9172
181993,LL,0,0.000742,-68.1349,0.000957,129.746,1.322422,88.9734,0.0,-5.7106,0.0,-10.8855,0.0,179.4277
181993,LL,10,0.90595,-36.1688,0.999237,-159.6263,1.070242,91.3011,0.0,54.6047,0.0,-68.7457,0.0,-178.35
181993,LL,20,0.965419,-34.2011,1.021822,-155.6625,1.048326,90.1089,0.0,56.7024,0.0,-64.674,0.0,-179.6799
181993,LL,30,0.981817,-33.2271,1.022017,-154.0178,1.034865,89.8178,0.0,57.5729,0.0,-62.9834,0.0,-179.7569
181993,LL,40,0.992659,-32.8208,1.024582,-153.3221,1.031706,89.5486,0.0,58.0576,0.0,-62.4456,0.0,180.0
181993,3LG,0,0.000969,-88.0616,0.00097,151.9593,0.000969,31.9321,0.0,2.5734,0.0,-117.2461,0.0,122.3772
181993,3LG,10,0.967657,-36.591,0.973051,-156.3497,0.965867,83.5932,0.0,54.1711,0.0,-65.4889,0.0,174.0387
181993,3LG,20,0.994345,-34.0075,0.999383,-153.7328,0.991917,86.1716,0.0,56.7707,0.0,-62.7757,0.0,176.6137
181993,3LG,30,1.004973,-33.1911,1.009876,-152.9057,1.002315,86.9856,0.0,57.5539,0.0,-61.9579,0.0,177.4923
181993,3LG,40,1.01029,-32.7765,1.015115,-152.4859,1.007511,87.3985,0.0,57.9677,0.0,-61.5704,0.0,177.7526
181994,SLG,0,0.000434,-103.0528,1.312335,-166.6332,1.265168,105.4798,0.0,59.8586,0.0,-75.5083,0.0,-164.3565
181994,SLG,10,0.927124,-40.5742,1.109226,-151.7291,0.999438,92.2089,0.0,50.2363,0.0,-60.7774,0.0,-177.485
181994,SLG,20,0.975222,-36.1418,1.068627,-151.1763,1.004126,90.515,0.0,54.7258,0.0,-60.3375,0.0,-179.0827
181994,SLG,30,0.9924,-34.6494,1.05651,-151.1448,1.009483,89.8927,0.0,56.1232,0.0,-60.2722,0.0,-179.6674
181994,SLG,40,1.000937,-33.8829,1.050234,-151.1438,1.012524,89.5819,0.0,56.9016,0.0,-60.3439,0.0,-179.9172
181994,LL,0,0.000699,-68.8031,0.000861,129.4149,1.321721,88.9581,0.0,-4.0856,0.0,-12.8043,0.0,179.4264
181994,LL,10,0.897456,-36.5511,0.996155,-160.3157,1.073666,91.4771,0.0,54.2087,0.0,-69.3577,0.0,-178.1196
181994,LL,20,0.960619,-34.4327,1.020889,-156.0303,1.049869,90.2345,0.0,56.4033,0.0,-65.0763,0.0,-179.3599
181994,LL,30,0.978516,-33.3924,1.021572,-154.2674,1.035806,89.911,0.0,57.51,0.0,-63.4806,0.0,-179.6754
181994,LL,40,0.990145,-32.9489,1.024316,-153.5105,1.032374,89.622,0.0,57.9555,0.0,-62.4535,0.0,179.9187
181994,3LG,0,0.000889,-88.7532,0.00089,151.2815,0.00089,31.2477,0.0,2.1115,0.0,-117.9226,0.0,121.6859
181994,3LG,10,0.963178,-37.0385,0.96856,-156.7992,0.961441,83.1457,0.0,53.8384,0.0,-65.9218,0.0,173.4814
181994,3LG,20,0.992136,-34.2442,0.997183,-153.9706,0.989745,85.9355,0.0,56.4854,0.0,-62.9704,0.0,176.3972
181994,3LG,30,1.00351,-33.3518,1.008422,-153.0672,1.000878,86.8254,0.0,57.3653,0.0,-62.1097,0.0,177.1585
181994,3LG,40,1.009197,-32.8981,1.01403,-152.6081,1.006439,87.2774,0.0,57.9705,0.0,-61.7543,0.0,177.8295
181891,SLG,0,0.247089,-32.4649,1.239306,-163.4319,1.19539,102.018,0.0,58.0936,0.0,-72.5113,0.0,-167.7158
181891,SLG,10,0.936427,-38.8424,1.097084,-151.7894,1.005851,91.6143,0.0,52.0966,0.0,-60.805,0.0,-178.0797
181891,SLG,20,0.97995,-35.3225,1.062602,-151.2236,1.007753,90.2361,0.0,55.5041,0.0,-60.3428,0.0,-179.3338
181891,SLG,30,0.995601,-34.1146,1.052517,-151.1797,1.01198,89.7115,0.0,56.6941,0.0,-60.3411,0.0,-179.8337
181891,SLG,40,1.003361,-33.4864,1.047256,-151.171,1.014421,89.448,0.0,57.4937,0.0,-60.2304,0.0,179.8344
181891,LL,0,0.263257,-33.1771,0.244897,-155.8118,1.250377,88.819,0.0,56.9447,0.0,-64.0003,0.0,179.0564
181891,LL,10,0.915558,-35.4603,0.99421,-158.7954,1.067631,90.917,0.0,55.4245,0.0,-67.6968,0.0,-178.8196
181891,LL,20,0.969686,-33.8959,1.019849,-155.3,1.047339,89.9305,0.0,57.0116,0.0,-64.3155,0.0,-179.7596
181891,LL,30,0.984522,-33.0388,1.020899,-153.7871,1.03425,89.7036,0.0,57.6553,0.0,-62.9668,0.0,179.9187
181891,LL,40,0.994651,-32.6858,1.023823,-153.1526,1.03125,89.4648,0.0,58.0898,0.0,-62.203,0.0,179.7558
181891,3LG,0,0.257437,-35.6953,0.257873,-155.5861,0.257233,84.3694,0.0,55.1921,0.0,-64.6601,0.0,174.7612
181891,3LG,10,0.969499,-36.0593,0.974678,-155.8089,0.967485,84.1165,0.0,54.9004,0.0,-64.7738,0.0,174.4794
181891,3LG,20,0.995265,-33.7751,1.000202,-153.4971,0.992747,86.3997,0.0,57.101,0.0,-62.6544,0.0,176.7826
181891,3LG,30,1.005598,-33.0439,1.010436,-152.7567,1.002884,87.1299,0.0,57.7855,0.0,-61.794,0.0,177.4886
181891,3LG,40,1.010765,-32.6691,1.015543,-152.3772,1.007946,87.5038,0.0,58.078,0.0,-61.4928,0.0,177.9992
255335,SLG,0,0.000457,-90.9472,1.309387,-165.9824,1.250197,105.3738,3293.0275,-90.9472,0.0,-74.7351,0.0,-164.5823
255335,SLG,10,0.908317,-41.6982,1.116878,-151.8163,0.997617,92.6464,653.9483,-41.6982,0.0,-60.7456,0.0,-177.2298
255335,SLG,20,0.970148,-37.0315,1.079965,-151.4457,1.00825,90.5691,349.2318,-37.0315,0.0,-60.523,0.0,-179.1697
255335,SLG,30,0.985867,-35.0965,1.059687,-151.1444,1.007937,90.0504,236.5936,-35.0965,0.0,-60.2649,0.0,-179.583
255335,SLG,40,0.996031,-34.2254,1.052675,-151.1394,1.011259,89.7002,179.2746,-34.2254,0.0,-60.3586,0.0,-179.9172
255335,LL,0,0.000654,-71.5819,0.000685,136.8431,1.315524,89.1639,4709.2161,-71.5819,4929.6924,136.8431,0.0,179.4873
255335,LL,10,0.877415,-37.1719,0.982386,-161.4577,1.079362,91.7084,631.7003,-37.1719,707.2743,-161.4577,0.0,-177.8933
255335,LL,20,0.949047,-34.8219,1.014794,-156.6658,1.052624,90.4207,341.6359,-34.8219,365.3033,-156.6658,0.0,-179.2021
255335,LL,30,0.970484,-33.674,1.0178,-154.7047,1.03753,90.0541,232.9018,-33.674,244.2569,-154.7047,0.0,-179.5954
255335,LL,40,0.983996,-33.1688,1.021598,-153.8431,1.033611,89.7363,177.1084,-33.1688,183.8764,-153.8431,0.0,-179.674
255335,3LG,0,0.000749,-87.0741,0.00075,152.9751,0.000749,32.9401,5393.0614,-87.0741,5401.476,152.9751,5395.3772,32.9401
255335,3LG,10,0.948292,-37.8049,0.953596,-157.5678,0.946638,82.3792,682.7283,-37.8049,686.5471,-157.5678,681.5376,82.3792
255335,3LG,20,0.984471,-34.6635,0.989502,-154.3915,0.982143,85.517,354.3877,-34.6635,356.1988,-154.3915,353.5497,85.517
255335,3LG,30,0.998352,-33.6397,1.003261,-153.3562,0.995768,86.5383,239.5898,-33.6397,240.7679,-153.3562,238.9696,86.5383
255335,3LG,40,1.005313,-33.1172,1.010146,-152.828,1.002592,87.059,180.9452,-33.1172,181.8152,-152.828,180.4554,87.059
182030,SLG,0,0.041079,-52.7619,1.301583,-165.3683,1.236081,105.0252,3170.6487,-90.1226,0.0,-74.9446,0.0,-164.4253
182030,SLG,10,0.908417,-41.5935,1.116287,-151.8293,0.998105,92.6218,649.2607,-41.9154,0.0,-60.9635,0.0,-176.5797
182030,SLG,20,0.970135,-37.0035,1.079809,-151.451,1.008412,90.5638,347.9533,-37.1651,0.0,-61.2928,0.0,-178.9978
182030,SLG,30,0.985853,-35.0839,1.059619,-151.1471,1.008014,90.0483,236.0144,-35.1917,0.0,-60.9753,0.0,-179.6659
182030,SLG,40,0.996021,-34.2182,1.052636,-151.141,1.011304,89.6991,178.9454,-34.2991,0.0,-60.8413,0.0,-179.5878
182030,LL,0,0.050069,-42.2279,0.05054,178.8134,1.306075,89.2909,4473.8662,-70.8014,4701.5371,138.1034,0.0,179.8721
182030,LL,10,0.878313,-37.0982,0.981794,-161.3745,1.079171,91.6717,627.412,-37.3129,702.7892,-161.7049,0.0,-177.6044
182030,LL,20,0.949285,-34.7993,1.014572,-156.645,1.052616,90.4089,340.3745,-34.9102,364.1851,-156.8129,0.0,-179.2818
182030,LL,30,0.970586,-33.6632,1.017689,-154.6957,1.037536,90.0486,232.3126,-33.7381,243.7697,-154.8083,0.0,-179.1174
182030,LL,40,0.984053,-33.1626,1.021533,-153.8381,1.033618,89.7331,176.7682,-33.2191,183.6051,-153.9227,0.0,-179.9187
182030,3LG,0,0.054384,-51.6709,0.054495,-171.5864,0.054388,68.3804,5128.316,-86.0234,5136.9426,154.0268,5130.4138,33.9927
182030,3LG,10,0.948403,-37.7507,0.953691,-157.5128,0.946732,82.4329,678.5854,-37.9954,682.3743,-157.7593,677.4092,82.1877
182030,3LG,20,0.984487,-34.6493,0.989512,-154.3772,0.982155,85.531,353.2947,-34.7721,355.1002,-154.5008,352.4632,85.4081
182030,3LG,30,0.998358,-33.6333,1.003264,-153.3497,0.995771,86.5447,239.0954,-33.7152,240.2714,-153.4322,238.4785,86.4626
182030,3LG,40,1.005315,-33.1136,1.010147,-152.8244,1.002593,87.0626,180.6648,-33.1751,181.5337,-152.8863,180.1769,87.001
182153,SLG,0,0.267074,-48.2219,1.257099,-162.1056,1.165167,102.7676,0.0,42.8284,0.0,-71.1501,0.0,-167.0325
182153,SLG,10,0.912045,-40.7914,1.112029,-151.8865,1.000913,92.4285,0.0,50.0289,0.0,-61.0511,0.0,-176.9784
182153,SLG,20,0.966801,-36.5042,1.071748,-151.2188,1.003307,90.6936,0.0,54.3618,0.0,-60.3926,0.0,-178.9128
182153,SLG,30,0.986716,-34.9534,1.058994,-151.1577,1.008462,90.0229,0.0,55.9608,0.0,-60.2136,0.0,-179.6659
182153,SLG,40,0.996672,-34.1355,1.05226,-151.1461,1.011556,89.6831,0.0,56.6787,0.0,-60.2109,0.0,-179.9172
182153,LL,0,0.31953,-43.826,0.293926,-177.2183,1.249999,89.7143,0.0,46.5086,0.0,-85.5389,0.0,-179.7985
182153,LL,10,0.887618,-36.4879,0.980385,-160.7351,1.077535,91.4166,0.0,54.2007,0.0,-69.875,0.0,-178.1272
182153,LL,20,0.952391,-34.5846,1.014286,-156.4443,1.052349,90.3243,0.0,56.1819,0.0,-65.5774,0.0,-179.2828
182153,LL,30,0.972246,-33.55,1.017742,-154.5899,1.037421,90.0077,0.0,57.175,0.0,-63.5633,0.0,-179.5145
182153,LL,40,0.985154,-33.0905,1.021687,-153.7687,1.033534,89.7087,0.0,57.7895,0.0,-62.8852,0.0,-179.8377
182153,3LG,0,0.325232,-51.6676,0.326224,-171.5201,0.32502,68.4255,0.0,39.2386,0.0,-80.6007,0.0,158.8164
182153,3LG,10,0.952226,-37.307,0.957458,-157.0615,0.950413,82.8781,0.0,53.4312,0.0,-66.2052,0.0,173.1923
182153,3LG,20,0.985949,-34.4994,0.990962,-154.2244,0.983564,85.6821,0.0,56.2894,0.0,-63.3666,0.0,176.0783
182153,3LG,30,0.999248,-33.5514,1.004152,-153.266,0.996631,86.6277,0.0,57.1919,0.0,-62.3696,0.0,177.0492
182153,3LG,40,1.005954,-33.0593,1.010787,-152.7687,1.00321,87.1179,0.0,57.7364,0.0,-61.6717,0.0,177.4886
182158,SLG,0,0.328233,-45.4142,1.239798,-161.2817,1.149132,101.8238,0.0,45.7106,0.0,-70.2332,0.0,-168.1302
182158,SLG,10,0.912018,-40.5333,1.110593,-151.9255,1.002213,92.373,0.0,50.2979,0.0,-61.0476,0.0,-177.485
182158,SLG,20,0.966633,-36.4313,1.071361,-151.2352,1.003754,90.6825,0.0,54.4466,0.0,-60.2237,0.0,-179.08
182158,SLG,30,0.986611,-34.9195,1.058817,-151.1663,1.008682,90.0185,0.0,55.9201,0.0,-60.1697,0.0,-179.5003
182158,SLG,40,0.996603,-34.1158,1.052158,-151.1514,1.011685,89.6808,0.0,56.7488,0.0,-60.0491,0.0,180.0
182158,LL,0,0.382439,-41.9026,0.353777,-173.0996,1.232385,89.7043,0.0,48.6416,0.0,-81.614,0.0,-179.8633
182158,LL,10,0.8901,-36.2924,0.97839,-160.5509,1.077229,91.3141,0.0,54.5489,0.0,-69.5144,0.0,-178.2879
182158,LL,20,0.953047,-34.5181,1.013506,-156.3983,1.052406,90.2903,0.0,56.2765,0.0,-65.3102,0.0,-179.2818
182158,LL,30,0.972525,-33.5172,1.017349,-154.5701,1.03748,89.9916,0.0,57.3329,0.0,-63.5769,0.0,-179.6772
182158,LL,40,0.985309,-33.071,1.02145,-153.7576,1.033576,89.6993,0.0,57.6837,0.0,-62.8899,0.0,-179.9188
182158,3LG,0,0.38697,-48.6446,0.388309,-168.4716,0.386623,71.4677,0.0,42.1682,0.0,-77.7392,0.0,161.7196
182158,3LG,10,0.952505,-37.1896,0.957686,-156.9424,0.950644,82.9934,0.0,53.7214,0.0,-66.0838,0.0,173.499
182158,3LG,20,0.98598,-34.4663,0.990975,-154.1911,0.983584,85.7144,0.0,56.3099,0.0,-63.4279,0.0,176.024
182158,3LG,30,0.999253,-33.536,1.004149,-153.2505,0.996631,86.6427,0.0,57.3737,0.0,-62.1791,0.0,176.974
182158,3LG,40,1.005953,-33.0503,1.010782,-152.7597,1.003207,87.1266,0.0,57.7539,0.0,-61.7795,0.0,177.4923
182162,SLG,0,0.379067,-43.4089,1.224944,-160.6093,1.136845,100.9907,0.0,47.5257,0.0,-69.5213,0.0,-168.9148
182162,SLG,10,0.911967,-40.2916,1.109267,-151.9629,1.003448,92.3222,0.0,50.5348,0.0,-60.9937,0.0,-177.3254
182162,SLG,20,0.97116,-36.6072,1.077776,-151.506,1.01025,90.4896,0.0,54.2594,0.0,-60.4901,0.0,-179.2538
182162,SLG,30,0.986498,-34.8875,1.058655,-151.1747,1.008894,90.0148,0.0,55.9752,0.0,-60.2087,0.0,-179.5011
182162,SLG,40,0.996529,-34.0974,1.052067,-151.1565,1.011811,89.679,0.0,56.7321,0.0,-60.2674,0.0,-179.917
182162,LL,0,0.432964,-40.5272,0.402804,-170.0844,1.217515,89.6727,0.0,49.9572,0.0,-78.7661,0.0,180.0
182162,LL,10,0.892429,-36.1133,0.976485,-160.3771,1.076953,91.2177,0.0,54.7047,0.0,-69.356,0.0,-178.4371
182162,LL,20,0.953672,-34.4553,1.01274,-156.3551,1.052474,90.2578,0.0,56.3221,0.0,-65.4162,0.0,-179.2818
182162,LL,30,0.97279,-33.486,1.016959,-154.5519,1.037546,89.9762,0.0,57.3287,0.0,-63.747,0.0,-179.5948
182162,LL,40,0.985454,-33.0525,1.021216,-153.7476,1.033624,89.6904,0.0,57.7404,0.0,-62.7559,0.0,-179.8375
182162,3LG,0,0.436308,-46.4244,0.437966,-166.2291,0.435819,73.7039,0.0,44.1434,0.0,-75.2661,0.0,164.2132
182162,3LG,10,0.952739,-37.0817,0.957871,-156.8329,0.950834,83.0994,0.0,53.6539,0.0,-65.9602,0.0,173.4652
182162,3LG,20,0.986001,-34.4358,0.990978,-154.1603,0.983593,85.7441,0.0,56.4775,0.0,-63.2725,0.0,176.1633
182162,3LG,30,0.999255,-33.5218,1.004141,-153.2362,0.996627,86.6565,0.0,57.3779,0.0,-62.3518,0.0,177.2257
182162,3LG,40,1.005951,-33.0421,1.010775,-152.7515,1.003202,87.1345,0.0,57.5927,0.0,-61.8061,0.0,177.5722
